<?xml version="1.0" encoding="UTF-8"?>

<!-- generated on 2025-05-28 23:25:14 by Eclipse SUMO sumo Version 1.22.0
-->

<sumoConfiguration xmlns:xsi="http://www.w3.org/2001/XMLSchema-instance" xsi:noNamespaceSchemaLocation="http://sumo.dlr.de/xsd/sumoConfiguration.xsd">

    <input>
        <net-file value="Town04.net.xml"/>
        <route-files value="4cars_coperception.rou.xml"/>
        <additional-files value="4cars_coperception.poly.xml"/>
    </input>

    <time>
        <step-length value="0.1"/>
    </time>

    <traci_server>
        <num-clients value="1"/>
    </traci_server>

</sumoConfiguration>
